codes/cases/casemg3_peds.m
function mpc = casemg3_peds																						
%   casemg3  Power flow data for microgrid 3																						
%   Please see CASEFORMAT for details on the case file format.																						
%																						
																						
%% MATPOWER Case Format : Version 2																						
mpc.version = '2';																						
																						
%%-----  Power Flow Data  -----%%																						
%% system MVA base																						
mpc.baseMVA = 10;																						
																						
%% bus data																						
%	bus_i	type	Pd	Qd	Gs	Bs	area	Vm	Va	baseKV	zone	Vmax	Vmin									
mpc.bus = [ %% (Pd and Qd are specified in kW & kVAr here, converted to MW & MVAr below)																						
	1	2	40	30	0	0	1	1	0	12.66	1	1.05	0.95;	% if there are changes in Pd, also change the values in load_profiles_pd_qd_mgN.xlsx								
	2	1	34	25.5	0	0	1	1	0	12.66	1	1.05	0.95;									
	3	1	17	12.75	0	0	1	1	0	12.66	1	1.05	0.95;	% 12 kW to 17 kW (force a supply deficiency to trigger importation)								
	4	2	40	30	0	0	1	1	0	12.66	1	1.05	0.95;	% 34 kW to 40 kW (force a supply deficiency to trigger importation)								
	5	1	75	56.25	0	0	1	1	0	12.66	1	1.05	0.95;									
	6	1	100	75	0	0	1	1	0	12.66	1	1.05	0.95;									
	7	2	24	18	0	0	1	1	0	12.66	1	1.05	0.95;									
	8	1	70	52.5	0	0	1	1	0	12.66	1	1.05	0.95;	% 64 kW to 70 kW (force a supply deficiency to trigger importation)								
	9	3	0	0	0	0	1	1	0	12.66	1	1.05	0.95;									
];																						
																						
%% generator data																						
%	bus	Pg	Qg	Qmax	Qmin	Vg	mBase	status	Pmax	Pmin	Pc1	Pc2	Qc1min	Qc1max	Qc2min	Qc2max	ramp_agc	ramp_10	ramp_30	ramp_q	apf	
mpc.gen = [																						
	1	0	0	0.1	-0.08	1	100	1	0.075	0	0	0	0	0	0	0	0	0	0	0	0;	% diesel: 75 kW
	2	0	0	0	0	1	100	1	0.05	0.05	0	0	0	0	0	0	0	0	0	0	0;	% solar: 50 kW
	4	0	0	0.1	-0.08	1	100	1	0.075	0	0	0	0	0	0	0	0	0	0	0	0;	% diesel: 75 kW
	7	0	0	0.2	-0.18	1	100	1	0.15	0	0	0	0	0	0	0	0	0	0	0	0;	% diesel: 150 kW
	8	0	0	0	0	1	100	1	0.05	0.05	0	0	0	0	0	0	0	0	0	0	0;	% wind: 50 kW
	9	0	0	0	0	1	100	1	0	0	0	0	0	0	0	0	0	0	0	0	0;	% dummy
];																						
																						
%% branch data																						
%	fbus	tbus	r	x	b	rateA	rateB	rateC	ratio	angle	status	angmin	angmax									
mpc.branch = [  %% (r and x specified in ohms here, converted to p.u. below)																						
	1	2	0.0005	0.0012	0	0.4	0	0	0	0	1	-360	360;									
	1	5	0.0005	0.0012	0	0.4	0	0	0	0	1	-360	360;									
	2	3	0.0005	0.0012	0	0.4	0	0	0	0	1	-360	360;									
	3	6	0.3416	0.1129	0	0.4	0	0	0	0	1	-360	360;									
	3	8	0.014	0.0046	0	0.38	0	0	0	0	1	-360	360;									
	3	9	0.1591	0.0526	0	0.4	0	0	0	0	1	-360	360;									
	4	5	0.0005	0.0012	0	0.4	0	0	0	0	1	-360	360;									
	5	6	0.1053	0.123	0	0.4	0	0	0	0	1	-360	360;									
	5	7	0.1053	0.123	0	0.4	0	0	0	0	1	-360	360;									
	7	8	0.0005	0.0012	0	0.38	0	0	0	0	1	-360	360;									
];																						
																						
%%-----  OPF Data  -----%%																						
%% generator cost data																						
%	1	startup	shutdown	n	x1	y1	...	xn	yn													
%	2	startup	shutdown	n	c(n-1)	...	c0															
mpc.gencost = [																						
	2	0	0	3	0.093878*10^6	8.519444*10^3	442.254179;	% diesel: 75 kW														
	2	0	0	3	0	0	0;	% solar: 50 kW														
	2	0	0	3	0.093878*10^6	8.519444*10^3	442.254179;	% diesel: 75 kW														
	2	0	0	3	0.009392*10^6	15.41875*10^3	356.471708;	% diesel: 150 kW														
	2	0	0	3	0	0	0;	% wind: 50 kW														
	2	0	0	3	0	0	0;	% dummy														
	2	0	0	3	0	0	0;	% start of reactive power cost														
	2	0	0	3	0	0	0;															
	2	0	0	3	0	0	0;															
	2	0	0	3	0	0	0;															
	2	0	0	3	0	0	0;															
	2	0	0	3	0	0	0;	% dummy														
];																						
																						
																						
%% convert branch impedances from Ohms to p.u.																						
[PQ, PV, REF, NONE, BUS_I, BUS_TYPE, PD, QD, GS, BS, BUS_AREA, VM, ...																						
    VA, BASE_KV, ZONE, VMAX, VMIN, LAM_P, LAM_Q, MU_VMAX, MU_VMIN] = idx_bus;																						
[F_BUS, T_BUS, BR_R, BR_X, BR_B, RATE_A, RATE_B, RATE_C, ...																						
    TAP, SHIFT, BR_STATUS, PF, QF, PT, QT, MU_SF, MU_ST, ...																						
    ANGMIN, ANGMAX, MU_ANGMIN, MU_ANGMAX] = idx_brch;																						
Vbase = mpc.bus(1, BASE_KV) * 1e3;      %% in Volts																						
Sbase = mpc.baseMVA * 1e6;              %% in VA																						
mpc.branch(:, [BR_R BR_X]) = mpc.branch(:, [BR_R BR_X]) / (Vbase^2 / Sbase);																						
																						
%% convert loads from kW to MW																						
mpc.bus(:, [PD, QD]) = mpc.bus(:, [PD, QD]) / 1e3;																						
